Version 4
SHEET 1 880 680
WIRE 720 -592 128 -592
WIRE 32 -512 -752 -512
WIRE 128 -512 128 -592
WIRE 128 -512 32 -512
WIRE 224 -512 128 -512
WIRE 672 -512 304 -512
WIRE 32 -448 32 -512
WIRE 32 -320 32 -368
WIRE 416 -320 32 -320
WIRE 672 -320 672 -512
WIRE 672 -320 608 -320
WIRE 416 -272 352 -272
WIRE 720 -272 720 -592
WIRE 720 -272 608 -272
WIRE 352 -224 352 -272
WIRE 704 -144 608 -144
WIRE 816 -144 816 -240
WIRE 816 -144 704 -144
WIRE 704 -112 704 -144
WIRE 32 0 32 -320
WIRE 32 0 16 0
WIRE 192 0 32 0
WIRE 704 0 704 -32
WIRE 192 48 192 0
WIRE 16 160 16 0
WIRE 64 160 16 160
WIRE 416 160 416 96
WIRE 416 160 320 160
WIRE -752 176 -752 -512
WIRE -752 288 -752 256
WIRE 192 320 192 272
WIRE 416 320 416 160
WIRE 192 432 192 400
WIRE 416 432 416 400
FLAG 192 432 0
FLAG -752 288 0
FLAG 416 432 0
FLAG 416 96 Vreg
FLAG 352 -224 0
FLAG 704 0 0
FLAG 816 -240 Vsense
SYMBOL PowerProducts\\LT3080 192 160 R0
SYMATTR InstName U1
SYMBOL res 176 304 R0
SYMATTR InstName R1
SYMATTR Value 330k
SYMBOL voltage -752 160 R0
WINDOW 123 0 0 Left 2
WINDOW 39 0 0 Left 2
SYMATTR InstName V1
SYMATTR Value 5
SYMBOL res 400 304 R0
SYMATTR InstName R2
SYMATTR Value 1k
SYMBOL Opamps\\LT6106 512 -256 R0
SYMATTR InstName U2
SYMBOL res 48 -352 R180
WINDOW 0 36 76 Left 2
WINDOW 3 36 40 Left 2
SYMATTR InstName R3
SYMATTR Value 0.1
SYMBOL res 208 -496 R270
WINDOW 0 32 56 VTop 2
WINDOW 3 0 56 VBottom 2
SYMATTR InstName R4
SYMATTR Value 100
SYMBOL res 688 -128 R0
SYMATTR InstName R5
SYMATTR Value 10k
TEXT -192 -48 Left 2 !.op
