Version 4
SHEET 1 880 680
WIRE -256 -416 -336 -416
WIRE 192 -416 -176 -416
WIRE -32 -320 -160 -320
WIRE 192 -320 192 -416
WIRE 192 -320 160 -320
WIRE -32 -272 -96 -272
WIRE 240 -272 240 -336
WIRE 240 -272 160 -272
WIRE -96 -224 -96 -272
WIRE 416 -144 160 -144
WIRE 544 -144 544 -240
WIRE 544 -144 416 -144
WIRE 544 -112 544 -144
WIRE 416 -96 416 -144
WIRE -384 0 -384 -32
WIRE -336 0 -336 -416
WIRE -336 0 -384 0
WIRE -288 0 -336 0
WIRE -160 0 -160 -320
WIRE -160 0 -208 0
WIRE 16 0 -160 0
WIRE 192 0 16 0
WIRE 416 0 416 -32
WIRE 544 0 544 -32
WIRE 544 0 416 0
WIRE 544 16 544 0
WIRE 192 48 192 0
WIRE 16 160 16 0
WIRE 64 160 16 160
WIRE 416 160 416 96
WIRE 416 160 320 160
WIRE -384 224 -384 176
WIRE 192 320 192 272
WIRE 416 320 416 160
WIRE -384 336 -384 304
WIRE 192 432 192 400
WIRE 416 432 416 400
FLAG 192 432 0
FLAG -384 336 0
FLAG 416 432 0
FLAG 416 96 Vreg
FLAG -96 -224 0
FLAG 544 16 0
FLAG 544 -240 Vsense
FLAG -384 176 Vbus
FLAG -384 -32 Vbus
FLAG 240 -336 Vbus
SYMBOL PowerProducts\\LT3080 192 160 R0
SYMATTR InstName U1
SYMBOL res 176 304 R0
SYMATTR InstName Rset
SYMATTR Value 330k
SYMBOL voltage -384 208 R0
WINDOW 123 0 0 Left 2
WINDOW 39 0 0 Left 2
SYMATTR InstName V1
SYMATTR Value 5
SYMBOL res 400 304 R0
SYMATTR InstName R2
SYMATTR Value 33
SYMBOL Opamps\\LT6106 64 -256 R0
SYMATTR InstName U2
SYMBOL res -304 16 R270
WINDOW 0 32 56 VTop 2
WINDOW 3 0 56 VBottom 2
SYMATTR InstName Rsense
SYMATTR Value 0.1
SYMBOL res -272 -400 R270
WINDOW 0 32 56 VTop 2
WINDOW 3 0 56 VBottom 2
SYMATTR InstName Rgain
SYMATTR Value 100
SYMBOL res 528 -128 R0
SYMATTR InstName Riv
SYMATTR Value 10k
SYMBOL cap 400 -96 R0
SYMATTR InstName C1
SYMATTR Value 10n
TEXT 568 360 Left 2 !.op
TEXT -256 64 Left 2 ;Iin
TEXT 264 -192 Left 2 ;Iout
TEXT 464 -384 Left 2 ;Iout
TEXT 560 -384 Left 2 ;Iin
TEXT 616 -408 Left 2 ;Rsense
TEXT 624 -368 Left 2 ;Rgain
TEXT 528 -384 Left 2 ;=
TEXT -168 -472 Left 2 ;Maximum value for Rgain\nis 500ohms
TEXT 464 -456 Left 2 ;Limit Iout to 1mA
TEXT 56 -32 Left 2 ;Typical dropout = 1.2V
TEXT -320 120 Left 2 ;Vsense should not\nexceed 500mV
LINE Normal -192 80 -288 80
LINE Normal -208 64 -192 80
LINE Normal -208 96 -192 80
LINE Normal 328 -176 232 -176
LINE Normal 312 -192 328 -176
LINE Normal 312 -160 328 -176
LINE Normal 704 -384 608 -384
ARC Normal 608 -432 592 -336 595 -444 601 -341
ARC Normal 704 -432 720 -336 711 -341 717 -444
